Circuit: * C:\Users\User\Documents\112Projects\Plasma-Toroid-Driver\Toroid Generator.asc

Per .tran options, skipping operating point for transient analysis.

Date: Thu Jan 12 21:07:37 2023
Total elapsed time: 0.051 seconds.

tnom = 27
temp = 27
method = Gear
totiter = 4259
traniter = 4259
tranpoints = 2029
accept = 1704
rejected = 325
matrix size = 23
fillins = 14
solver = Normal
Matrix Compiler1: 1.73 KB object code size  0.3/0.2/[0.1]
Matrix Compiler2: off  [0.1]/0.2/0.2

